 # crystal structure from graphene.XV
 CRYSTAL
 # Cell vectors in Angstroem:
 PRIMVEC
   5.2398001   3.0258001   0.0000000
   5.2398001  -3.0258001   0.0000000
   0.0000000   0.0000000  36.9000007
 # Atom coordinates in Angstroem:
 PRIMCOORD
   41    1
   6         -0.71000001          1.22900002          6.00000011
   6          0.00000000          0.00000000          6.00000011
   6          1.42000003          0.00000000          6.00000011
   6          2.13000004          1.22900002          6.00000011
   6          1.42000003          2.45900005          6.00000011
   6          0.00000000          2.45900005          6.00000011
   6          3.55000007          1.22900002          6.00000011
   6          4.26000008          0.00000000          6.00000011
   6          5.68000011          0.00000000          6.00000011
   6          6.39000012          1.22900002          6.00000011
   6          5.68000011          2.45900005          6.00000011
   6          4.26000008          2.45900005          6.00000011
   6          2.13000004          3.68800007          6.00000011
   6          3.55000007          3.68800007          6.00000011
   6          1.42000003          4.91900009          6.00000011
   6          4.26000008          4.91900009          6.00000011
   6          7.81000015          1.22900002          6.00000011
   6          8.52000016          0.00000000          6.00000011
   6          9.94000019          0.00000000          6.00000011
   6         10.65000020          1.22900002          6.00000011
   6         12.07000023          1.22900002          6.00000011
   6         12.78000024          0.00000000          6.00000011
   6         14.20000027          0.00000000          6.00000011
   6         14.91000028          1.22900002          6.00000011
   6          8.52000016          2.45900005          6.00000011
   6          9.94000019          2.45900005          6.00000011
   6         14.20000027          2.45900005          6.00000011
   6         12.78000024          2.45900005          6.00000011
   6          6.39000012          3.68800007          6.00000011
   6          7.81000015          3.68800007          6.00000011
   6         10.65000020          3.68800007          6.00000011
   6         12.07000023          3.68800007          6.00000011
   6         -0.71000001          3.68800007          6.00000011
   6          0.00000000          4.91900009          6.00000011
   6          5.68000011          4.91900009          6.00000011
   6          8.52000016          4.91900009          6.00000011
   6          9.94000019          4.91900009          6.00000011
   6         12.78000024          4.91900009          6.00000011
   6         14.20000027          4.91900009          6.00000011
   6         14.91000028          3.68800007          6.00000011
  27          2.13000004          6.14800012          6.00000011
