 # crystal structure from graphene.XV
 CRYSTAL
 # Cell vectors in Angstroem:
 PRIMVEC
   5.2398001   3.0258001   0.0000000
   5.2398001  -3.0258001   0.0000000
   0.0000000   0.0000000  36.9000007
 # Atom coordinates in Angstroem:
 PRIMCOORD
    2    1
   6          0.00000000          0.00000000          0.00000000
   6          1.42000003          0.00000000          0.00000000
