 # crystal structure from graphene.XV
 CRYSTAL
 # Cell vectors in Angstroem:
 PRIMVEC
  10.4796002   3.0258001   0.0000000
   5.2398001  -3.0258001   0.0000000
   0.0000000   0.0000000   2.4600000
 # Atom coordinates in Angstroem:
 PRIMCOORD
    4    1
   6          0.00000000          0.00000000          0.00000000
   6          1.42000003          0.00000000          0.00000000
   6          2.13000004          1.22900002          0.00000000
   6          3.55000007          1.22900002          0.00000000
