 # crystal structure from graphene.XV
 CRYSTAL
 # Cell vectors in Angstroem:
 PRIMVEC
   4.2874771   2.4753760   0.0000000
   4.2874771  -2.4753760   0.0000000
   0.0000000   0.0000000   2.4753760
 # Atom coordinates in Angstroem:
 PRIMCOORD
    5    1
   6          0.00000000          0.00000000          0.00000000
   6          1.42000003          0.00000000          0.00000000
   6          2.13000004          1.22900002          0.00000000
   6          3.55000007          1.22900002          0.00000000
   6          4.26000008          0.00000000          0.00000000
