 # crystal structure from graphene.XV
 CRYSTAL
 # Cell vectors in Angstroem:
 PRIMVEC
   4.2874771   2.4753760   0.0000000
   2.1437385  -1.2376880   0.0000000
   0.0000000   0.0000000  15.0000003
 # Atom coordinates in Angstroem:
 PRIMCOORD
    4    1
   6         -0.00990048         -0.00398431          5.99993290
   6          1.41952034         -0.00402193          5.99994419
   6          2.13463932          1.23328529          5.99992870
   6          3.56400500          1.23325153          5.99993490
