 # crystal structure from graphene.XV
 CRYSTAL
 # Cell vectors in Angstroem:
 PRIMVEC
  20.0704004   0.0000000   0.0000000
   0.0000000   4.3008001   0.0000000
   0.0000000   0.0000000   4.9661362
 # Atom coordinates in Angstroem:
 PRIMCOORD
    8    1
   6         -0.00000000          0.71680405          1.24153404
   6         -0.00000000         -0.71680405          1.24153404
   6          0.00000000          1.43359342         -0.00000000
   6          0.00000000          2.86720666          0.00000000
   6          0.00000000          0.71680405          3.72460213
   6         -0.00000000         -0.71680405          3.72460213
   6         -0.00000000          1.43359342          2.48306808
   6          0.00000000          2.86720666          2.48306809
